Cenario_2/Tabelas_02/SE_VLN_Node_FP_1.0..Txt

LINE-GROUND and LINE-LINE VOLTAGES BY BUS & NODE

Bus       Node    VLN (kV)   Angle      pu     Base kV    Node-Node   VLL (kV)  Angle      pu

99 ...... 1       7.8667 /_    0.1   0.98736    13.800        1-2     13.626 /_   30.1   0.98736
   -      2       7.8667 /_ -119.9   0.98736    13.800        2-3     13.626 /_  -89.9   0.98736
   -      3       7.8667 /_  120.1   0.98736    13.800        3-1     13.626 /_  150.1   0.98736
1 ....... 1       7.8652 /_    0.1   0.98717    13.800        1-2     13.623 /_   30.1   0.98717
   -      2       7.8652 /_ -119.9   0.98717    13.800        2-3     13.623 /_  -89.9   0.98717
   -      3       7.8652 /_  120.1   0.98717    13.800        3-1     13.623 /_  150.1   0.98717
2 ....... 1       7.8644 /_    0.1   0.98707    13.800        1-2     13.622 /_   30.1   0.98707
   -      2       7.8644 /_ -119.9   0.98707    13.800        2-3     13.622 /_  -89.9   0.98707
   -      3       7.8644 /_  120.1   0.98707    13.800        3-1     13.622 /_  150.1   0.98707
6 ....... 1       7.8706 /_    0.1   0.98784    13.800        1-2     13.632 /_   30.1   0.98784
   -      2       7.8706 /_ -119.9   0.98784    13.800        2-3     13.632 /_  -89.9   0.98784
   -      3       7.8706 /_  120.1   0.98784    13.800        3-1     13.632 /_  150.1   0.98784
7 ....... 1       7.8772 /_    0.1   0.98868    13.800        1-2     13.644 /_   30.1   0.98868
   -      2       7.8772 /_ -119.9   0.98868    13.800        2-3     13.644 /_  -89.9   0.98868
   -      3       7.8772 /_  120.1   0.98868    13.800        3-1     13.644 /_  150.1   0.98868
5 ....... 1        7.863 /_    0.1    0.9869    13.800        1-2     13.619 /_   30.1    0.9869
   -      2        7.863 /_ -119.9    0.9869    13.800        2-3     13.619 /_  -89.9    0.9869
   -      3        7.863 /_  120.1    0.9869    13.800        3-1     13.619 /_  150.1    0.9869
3 ....... 1       7.8638 /_    0.1     0.987    13.800        1-2     13.621 /_   30.1     0.987
   -      2       7.8638 /_ -119.9     0.987    13.800        2-3     13.621 /_  -89.9     0.987
   -      3       7.8638 /_  120.1     0.987    13.800        3-1     13.621 /_  150.1     0.987
4 ....... 1       7.8634 /_    0.1   0.98694    13.800        1-2      13.62 /_   30.1   0.98694
   -      2       7.8634 /_ -119.9   0.98694    13.800        2-3      13.62 /_  -89.9   0.98694
   -      3       7.8634 /_  120.1   0.98694    13.800        3-1      13.62 /_  150.1   0.98694
BT-TR1 .. 1      0.21191 /_  -32.2   0.96591     0.380        1-2    0.36705 /_   -2.2   0.96591
   -      2      0.21191 /_ -152.2   0.96591     0.380        2-3    0.36705 /_ -122.2   0.96591
   -      3      0.21191 /_   87.8   0.96591     0.380        3-1    0.36705 /_  117.8   0.96591
BT-TR2 .. 1      0.21189 /_  -32.2   0.96581     0.380        1-2    0.36701 /_   -2.2   0.96581
   -      2      0.21189 /_ -152.2   0.96581     0.380        2-3    0.36701 /_ -122.2   0.96581
   -      3      0.21189 /_   87.8   0.96581     0.380        3-1    0.36701 /_  117.8   0.96581
BT-TR3 .. 1      0.21188 /_  -32.2   0.96573     0.380        1-2    0.36698 /_   -2.2   0.96573
   -      2      0.21188 /_ -152.2   0.96573     0.380        2-3    0.36698 /_ -122.2   0.96573
   -      3      0.21188 /_   87.8   0.96573     0.380        3-1    0.36698 /_  117.8   0.96573
BT-TR4 .. 1      0.21186 /_  -32.2   0.96568     0.380        1-2    0.36696 /_   -2.2   0.96568
   -      2      0.21186 /_ -152.2   0.96568     0.380        2-3    0.36696 /_ -122.2   0.96568
   -      3      0.21186 /_   87.8   0.96568     0.380        3-1    0.36696 /_  117.8   0.96568
BT-TR5 .. 1      0.21185 /_  -32.2   0.96563     0.380        1-2    0.36694 /_   -2.2   0.96563
   -      2      0.21185 /_ -152.2   0.96563     0.380        2-3    0.36694 /_ -122.2   0.96563
   -      3      0.21185 /_   87.8   0.96563     0.380        3-1    0.36694 /_  117.8   0.96563
BT-TR6 .. 1      0.21207 /_  -32.1    0.9666     0.380        1-2    0.36731 /_   -2.1    0.9666
   -      2      0.21207 /_ -152.1    0.9666     0.380        2-3    0.36731 /_ -122.1    0.9666
   -      3      0.21207 /_   87.9    0.9666     0.380        3-1    0.36731 /_  117.9    0.9666
BT-TR7 .. 1      0.21225 /_  -32.1   0.96746     0.380        1-2    0.36763 /_   -2.1   0.96746
   -      2      0.21225 /_ -152.1   0.96746     0.380        2-3    0.36763 /_ -122.1   0.96746
   -      3      0.21225 /_   87.9   0.96746     0.380        3-1    0.36763 /_  117.9   0.96746
TR_ACOPL1 1      0.21738 /_    2.9   0.99083     0.380        1-2    0.37651 /_   32.9   0.99083
   -      2      0.21738 /_ -117.1   0.99083     0.380        2-3    0.37651 /_  -87.1   0.99083
   -      3      0.21738 /_  122.9   0.99083     0.380        3-1    0.37651 /_  152.9   0.99083
